7
10037 allene
C          1.26250        0.00000       -0.00000
C         -1.26250       -0.00000        0.00000
C         -0.00000       -0.00000       -0.00000
H          1.75770        0.85760       -0.00000
H          1.75770       -0.85760       -0.00000
H         -1.75770       -0.00000        0.85760
H         -1.75770       -0.00000       -0.85760
