60

C   0.0000000000000000000  1.7013016167040798644  4.6548768735326542206
C   1.6180339887498948482  0.52573111211913360603  4.6548768735326542206
C   -1.6180339887498948482  0.52573111211913360603  4.6548768735326542206
C   1.0000000000000000000  -1.3763819204711735382  4.6548768735326542206
C   -1.0000000000000000000  -1.3763819204711735382  4.6548768735326542206
C   0.0000000000000000000  3.4026032334081597287  3.6034146492943870086
C   3.2360679774997896964  1.0514622242382672121  3.6034146492943870086
C   -3.2360679774997896964  1.0514622242382672121  3.6034146492943870086
C   2.0000000000000000000  -2.7527638409423470764  3.6034146492943870086
C   -2.0000000000000000000  -2.7527638409423470764  3.6034146492943870086
C   1.6180339887498948482  3.9283343455272933348  2.5519524250561197965
C   -1.6180339887498948482  3.9283343455272933348  2.5519524250561197965
C   3.2360679774997896964  2.7527638409423470764  2.5519524250561197965
C   -3.2360679774997896964  2.7527638409423470764  2.5519524250561197965
C   4.2360679774997896964  -0.32491969623290632616  2.5519524250561197965
C   -4.2360679774997896964  -0.32491969623290632616  2.5519524250561197965
C   3.6180339887498948482  -2.2270327288232134704  2.5519524250561197965
C   -3.6180339887498948482  -2.2270327288232134704  2.5519524250561197965
C   1.0000000000000000000  -4.1291457614135206146  2.5519524250561197965
C   -1.0000000000000000000  -4.1291457614135206146  2.5519524250561197965
C   1.0000000000000000000  4.7789851538793332669  0.85065080835203993218
C   -1.0000000000000000000  4.7789851538793332669  0.85065080835203993218
C   4.2360679774997896964  2.4278441447094407503  0.85065080835203993218
C   -4.2360679774997896964  2.4278441447094407503  0.85065080835203993218
C   4.8541019662496845446  0.52573111211913360603  0.85065080835203993218
C   -4.8541019662496845446  0.52573111211913360603  0.85065080835203993218
C   3.6180339887498948482  -3.2784949530614806824  0.85065080835203993218
C   -3.6180339887498948482  -3.2784949530614806824  0.85065080835203993218
C   2.0000000000000000000  -4.4540654576464269408  0.85065080835203993218
C   -2.0000000000000000000  -4.4540654576464269408  0.85065080835203993218
C   2.0000000000000000000  4.4540654576464269408  -0.85065080835203993218
C   -2.0000000000000000000  4.4540654576464269408  -0.85065080835203993218
C   3.6180339887498948482  3.2784949530614806824  -0.85065080835203993218
C   -3.6180339887498948482  3.2784949530614806824  -0.85065080835203993218
C   4.8541019662496845446  -0.52573111211913360603  -0.85065080835203993218
C   -4.8541019662496845446  -0.52573111211913360603  -0.85065080835203993218
C   4.2360679774997896964  -2.4278441447094407503  -0.85065080835203993218
C   -4.2360679774997896964  -2.4278441447094407503  -0.85065080835203993218
C   1.0000000000000000000  -4.7789851538793332669  -0.85065080835203993218
C   -1.0000000000000000000  -4.7789851538793332669  -0.85065080835203993218
C   1.0000000000000000000  4.1291457614135206146  -2.5519524250561197965
C   -1.0000000000000000000  4.1291457614135206146  -2.5519524250561197965
C   3.6180339887498948482  2.2270327288232134704  -2.5519524250561197965
C   -3.6180339887498948482  2.2270327288232134704  -2.5519524250561197965
C   4.2360679774997896964  0.32491969623290632616  -2.5519524250561197965
C   -4.2360679774997896964  0.32491969623290632616  -2.5519524250561197965
C   3.2360679774997896964  -2.7527638409423470764  -2.5519524250561197965
C   -3.2360679774997896964  -2.7527638409423470764  -2.5519524250561197965
C   1.6180339887498948482  -3.9283343455272933348  -2.5519524250561197965
C   -1.6180339887498948482  -3.9283343455272933348  -2.5519524250561197965
C   2.0000000000000000000  2.7527638409423470764  -3.6034146492943870086
C   -2.0000000000000000000  2.7527638409423470764  -3.6034146492943870086
C   3.2360679774997896964  -1.0514622242382672121  -3.6034146492943870086
C   -3.2360679774997896964  -1.0514622242382672121  -3.6034146492943870086
C   0.0000000000000000000  -3.4026032334081597287  -3.6034146492943870086
C   1.0000000000000000000   1.3763819204711735382  -4.6548768735326542206
C   -1.0000000000000000000  1.3763819204711735382  -4.6548768735326542206
C   1.6180339887498948482  -0.52573111211913360603  -4.6548768735326542206
C   -1.6180339887498948482  -0.52573111211913360603  -4.6548768735326542206
C   0.00000000000000000000  -1.7013016167040798644  -4.6548768735326542206
