21
geometry in builder
Fe -0.000123226800 -0.000000000100 -0.000014153400
C  1.785722358300 0.000000103700 1.850184271900
C  1.374020452900 0.645831105800 2.075355930600
C  0.707905341400 0.399132012200 2.439660479600
C  -1.672026283300 -0.399147740900 -1.912695172200
C  -1.005886835800 -0.645816890500 -2.276931200700
H  2.825636281900 -0.000000007900 1.335120362900
H  1.711288763500 1.748512596200 1.944943843900
H  -0.092594860000 1.080386952800 2.931223157900
H  -0.714228066400 -1.748659740500 -2.489962869200
H  -2.517311074000 -1.080839415900 -1.503529776500
C  -0.594183082900 -0.000000052400 -2.501979581400
C  -1.005887982200 0.645817840700 -2.276933753300
C  -1.672022984200 0.399146842900 -1.912691832100
C  1.374023454200 -0.645832970800 2.075360524300
C  0.707903317800 -0.399130250700 2.439651496800
H  0.400610110000 0.000000004000 -3.099436338900
H  -0.714228084500 1.748659634100 -2.489962844400
H  -2.517311211600 1.080839518400 -1.503529725200
H  1.711288703400 -1.748512387100 1.944943847600
H  -0.092595090800 -1.080387154100 2.931223331100
