15
PubChem cid=359
O -2.598 0.9195 0.0002
O 0.5026 -2.7097 0
O 2.0954 1.79 -0.0001
C -1.3149 0.4656 -0.0001
C 0.2543 -1.3715 0
C 1.0606 0.9059 0.0001
C -1.0606 -0.9059 -0.0002
C -0.2542 1.3715 -0.0001
C 1.3149 -0.4655 0.0002
H -1.8826 -1.6176 -0.0002
H -0.4595 2.4391 -0.0001
H 2.3421 -0.8215 0.0002
H -3.2023 0.1573 0.0001
H 1.4648 -2.8519 0.0001
H 1.7376 2.6944 -0.0003
