7
17358
S          0.00000        0.00000        0.00000
F          1.64100        0.00000        0.00000
F         -1.64100        0.00000        0.00000
F          0.00000        1.64100        0.00000
F          0.00000       -1.64100        0.00000
F          0.00000        0.00000        1.64100
F          0.00000        0.00000       -1.64100
